<?xml version="1.0" encoding="UTF-8"?>

<!-- generated on 2024-03-29 15:42:36.724379 by osmWebWizard.py v1_19_0+0000-baa66a0f364
<configuration>
    <net-file value="C:\Users\msami\Sumo\2024-03-29-15-42-27\osm.net.xml.gz"/>
    <output-trip-file value="C:\Users\msami\Sumo\2024-03-29-15-42-27\osm.passenger.trips.xml"/>
    <route-file value="C:\Users\msami\Sumo\2024-03-29-15-42-27\osm.passenger.rou.xml"/>
    <prefix value="veh"/>
    <trip-attributes value="departLane=&quot;best&quot;"/>
    <fringe-start-attributes value="departSpeed=&quot;max&quot;"/>
    <vehicle-class value="passenger"/>
    <lanes value="True"/>
    <fringe-factor value="5"/>
    <allow-fringe.min-length value="1000.0"/>
    <via-edge-types value="highway.motorway,highway.motorway_link,highway.trunk_link,highway.primary_link,highway.secondary_link,highway.tertiary_link"/>
    <min-distance value="300.0"/>
    <min-distance.fringe value="10.0"/>
    <remove-loops value="True"/>
    <validate value="True"/>
    <end value="1000.0"/>
    <insertion-density value="20.0"/>
</configuration>
-->

<!-- generated on 2024-03-29 15:42:36 by Eclipse SUMO duarouter Version 1.19.0
<configuration xmlns:xsi="http://www.w3.org/2001/XMLSchema-instance" xsi:noNamespaceSchemaLocation="http://sumo.dlr.de/xsd/duarouterConfiguration.xsd">

    <input>
        <net-file value="C:\Users\msami\Sumo\2024-03-29-15-42-27\osm.net.xml.gz"/>
        <route-files value="C:\Users\msami\Sumo\2024-03-29-15-42-27\osm.passenger.trips.xml"/>
    </input>

    <output>
        <output-file value="C:\Users\msami\Sumo\2024-03-29-15-42-27\osm.passenger.trips.xml.tmp"/>
        <alternatives-output value="NUL"/>
        <write-trips value="true"/>
    </output>

    <processing>
        <remove-loops value="true"/>
    </processing>

    <time>
        <begin value="0.0"/>
        <end value="1000.0"/>
    </time>

    <report>
        <no-warnings value="true"/>
        <ignore-errors value="true"/>
        <no-step-log value="true"/>
    </report>

</configuration>
-->

<routes xmlns:xsi="http://www.w3.org/2001/XMLSchema-instance" xsi:noNamespaceSchemaLocation="http://sumo.dlr.de/xsd/routes_file.xsd">
    <vType id="veh_passenger" vClass="passenger"/>
    <trip id="veh0" type="veh_passenger" depart="0.00" departLane="best" departSpeed="max" from="885380933" to="-1202728905#0"/>
    <trip id="veh1" type="veh_passenger" depart="1.11" departLane="best" from="-888155727#0" to="887771598#3"/>
    <trip id="veh2" type="veh_passenger" depart="2.23" departLane="best" from="885409870#1" to="885380945#4"/>
    <trip id="veh3" type="veh_passenger" depart="3.34" departLane="best" from="-1083485613" to="292927468#2"/>
    <trip id="veh4" type="veh_passenger" depart="4.45" departLane="best" from="-887771595#0" to="-444358759#6"/>
    <trip id="veh5" type="veh_passenger" depart="5.56" departLane="best" from="-132737600" to="-885758263"/>
    <trip id="veh6" type="veh_passenger" depart="6.68" departLane="best" from="885380937#1" to="447791045#1"/>
    <trip id="veh7" type="veh_passenger" depart="7.79" departLane="best" from="887817813#3" to="-1044734339"/>
    <trip id="veh8" type="veh_passenger" depart="8.90" departLane="best" from="887815453#1" to="885384073#4"/>
    <trip id="veh9" type="veh_passenger" depart="10.01" departLane="best" from="889119742" to="885380942#4"/>
    <trip id="veh10" type="veh_passenger" depart="11.13" departLane="best" from="889162219#3" to="889119738#2"/>
    <trip id="veh11" type="veh_passenger" depart="12.24" departLane="best" from="-445425468#1" to="472714557#2"/>
    <trip id="veh12" type="veh_passenger" depart="13.35" departLane="best" from="888155729#4" to="720356474#3"/>
    <trip id="veh13" type="veh_passenger" depart="14.46" departLane="best" from="887815454#2" to="885395971#1"/>
    <trip id="veh14" type="veh_passenger" depart="15.58" departLane="best" from="-445291914#1" to="891208434#6"/>
    <trip id="veh15" type="veh_passenger" depart="16.69" departLane="best" from="889162219#0" to="472714557#7"/>
    <trip id="veh16" type="veh_passenger" depart="17.80" departLane="best" from="-888155715#2" to="885354449#1"/>
    <trip id="veh17" type="veh_passenger" depart="18.91" departLane="best" from="-888157363#1" to="472717504"/>
    <trip id="veh18" type="veh_passenger" depart="20.03" departLane="best" from="885384073#5" to="-301007097#3"/>
    <trip id="veh19" type="veh_passenger" depart="21.14" departLane="best" from="887775248#1" to="888157360#0"/>
    <trip id="veh20" type="veh_passenger" depart="22.25" departLane="best" from="-444509134#0" to="-887776077#4"/>
    <trip id="veh21" type="veh_passenger" depart="23.36" departLane="best" from="472714560#1" to="-888155729#3"/>
    <trip id="veh23" type="veh_passenger" depart="25.59" departLane="best" from="-889138277#0" to="-885768928"/>
    <trip id="veh24" type="veh_passenger" depart="26.70" departLane="best" from="-888155717#1" to="889138277#3"/>
    <trip id="veh25" type="veh_passenger" depart="27.81" departLane="best" from="885380937#0" to="720356492#2"/>
    <trip id="veh26" type="veh_passenger" depart="28.93" departLane="best" from="-885389918#0" to="-885395971#0"/>
    <trip id="veh27" type="veh_passenger" depart="30.04" departLane="best" from="885389911#2" to="-889162219#1"/>
    <trip id="veh28" type="veh_passenger" depart="31.15" departLane="best" from="891820957#0" to="885380937#2"/>
    <trip id="veh29" type="veh_passenger" depart="32.26" departLane="best" from="-472714557#5" to="885380946#2"/>
    <trip id="veh30" type="veh_passenger" depart="33.38" departLane="best" from="888155726#1" to="887776077#1"/>
    <trip id="veh31" type="veh_passenger" depart="34.49" departLane="best" from="-887775249#1" to="-301007089#0"/>
    <trip id="veh32" type="veh_passenger" depart="35.60" departLane="best" from="-888160868#2" to="888155717#3"/>
    <trip id="veh33" type="veh_passenger" depart="36.71" departLane="best" from="-885768930" to="-889162219#1"/>
    <trip id="veh34" type="veh_passenger" depart="37.83" departLane="best" from="888160860#2" to="-888160868#1"/>
    <trip id="veh35" type="veh_passenger" depart="38.94" departLane="best" from="885380939#0" to="889441218#0"/>
    <trip id="veh36" type="veh_passenger" depart="40.05" departLane="best" from="-889119746" to="301007089#2"/>
    <trip id="veh37" type="veh_passenger" depart="41.16" departLane="best" from="-888155716#3" to="-887815454#0"/>
    <trip id="veh38" type="veh_passenger" depart="42.28" departLane="best" from="472714560#4" to="-888155716#0"/>
    <trip id="veh39" type="veh_passenger" depart="43.39" departLane="best" from="472717507#1" to="889119739#2"/>
    <trip id="veh40" type="veh_passenger" depart="44.50" departLane="best" from="-889504806#1" to="-887771596#0"/>
    <trip id="veh41" type="veh_passenger" depart="45.61" departLane="best" from="892147656#1" to="444361593#0"/>
    <trip id="veh42" type="veh_passenger" depart="46.73" departLane="best" from="-445291914#1" to="-301007097#5"/>
    <trip id="veh43" type="veh_passenger" depart="47.84" departLane="best" from="-472714577#0" to="885354458"/>
    <trip id="veh44" type="veh_passenger" depart="48.95" departLane="best" from="887776079#0" to="-1083485614#0"/>
    <trip id="veh45" type="veh_passenger" depart="50.06" departLane="best" from="-444357950#11" to="-889162219#3"/>
    <trip id="veh46" type="veh_passenger" depart="51.18" departLane="best" from="892147655" to="-445425468#4"/>
    <trip id="veh47" type="veh_passenger" depart="52.29" departLane="best" from="889207215#2" to="888160858#3"/>
    <trip id="veh48" type="veh_passenger" depart="53.40" departLane="best" from="-1090757046" to="-885389924#2"/>
    <trip id="veh49" type="veh_passenger" depart="54.51" departLane="best" from="885380945#4" to="447791042"/>
    <trip id="veh50" type="veh_passenger" depart="55.63" departLane="best" from="-888155717#0" to="885380937#3"/>
    <trip id="veh51" type="veh_passenger" depart="56.74" departLane="best" from="-472714581" to="119045546#2"/>
    <trip id="veh52" type="veh_passenger" depart="57.85" departLane="best" from="119045603#2" to="-889203283"/>
    <trip id="veh53" type="veh_passenger" depart="58.96" departLane="best" from="888160860#1" to="888155716#1"/>
    <trip id="veh54" type="veh_passenger" depart="60.08" departLane="best" from="444357950#0" to="-885389925"/>
    <trip id="veh55" type="veh_passenger" depart="61.19" departLane="best" from="889119743#0" to="888160867"/>
    <trip id="veh56" type="veh_passenger" depart="62.30" departLane="best" from="-888157369" to="885380946#2"/>
    <trip id="veh58" type="veh_passenger" depart="64.53" departLane="best" from="-885768921#3" to="447791043#1"/>
    <trip id="veh59" type="veh_passenger" depart="65.64" departLane="best" from="-887771598#2" to="447791038#0"/>
    <trip id="veh60" type="veh_passenger" depart="66.75" departLane="best" from="-1044719283" to="-888174128"/>
    <trip id="veh61" type="veh_passenger" depart="67.86" departLane="best" from="-119045603#0" to="-889135582#1"/>
    <trip id="veh62" type="veh_passenger" depart="68.98" departLane="best" from="888160862" to="888155727#0"/>
    <trip id="veh63" type="veh_passenger" depart="70.09" departLane="best" from="-888160860#0" to="-326546173#0"/>
    <trip id="veh64" type="veh_passenger" depart="71.20" departLane="best" from="-888160861#1" to="-889162219#4"/>
    <trip id="veh65" type="veh_passenger" depart="72.31" departLane="best" from="-444802957#3" to="301007105"/>
    <trip id="veh66" type="veh_passenger" depart="73.43" departLane="best" from="444357950#6" to="885773074"/>
    <trip id="veh67" type="veh_passenger" depart="74.54" departLane="best" from="885768927" to="-720356465#2"/>
    <trip id="veh68" type="veh_passenger" depart="75.65" departLane="best" from="301007092" to="472714557#2"/>
    <trip id="veh69" type="veh_passenger" depart="76.76" departLane="best" from="-888155716#3" to="444357950#11"/>
    <trip id="veh70" type="veh_passenger" depart="77.88" departLane="best" from="445425468#2" to="-885395972"/>
    <trip id="veh71" type="veh_passenger" depart="78.99" departLane="best" from="-885768918#0" to="888160864"/>
    <trip id="veh72" type="veh_passenger" depart="80.10" departLane="best" from="720356491#0" to="885380939#1"/>
    <trip id="veh73" type="veh_passenger" depart="81.21" departLane="best" departSpeed="max" from="119045546#0" to="-444802957#1"/>
    <trip id="veh74" type="veh_passenger" depart="82.33" departLane="best" from="472717501" to="-887775245#0"/>
    <trip id="veh75" type="veh_passenger" depart="83.44" departLane="best" from="-889119739#1" to="504167484#7"/>
    <trip id="veh76" type="veh_passenger" depart="84.55" departLane="best" from="887776076#0" to="-887771596#1"/>
    <trip id="veh78" type="veh_passenger" depart="86.78" departLane="best" from="-887775249#0" to="889119747#3"/>
    <trip id="veh79" type="veh_passenger" depart="87.89" departLane="best" from="888157361#0" to="-444357950#7"/>
    <trip id="veh80" type="veh_passenger" depart="89.00" departLane="best" from="-887776080#1" to="885380944#8"/>
    <trip id="veh81" type="veh_passenger" depart="90.11" departLane="best" from="-885768951" to="-840315695#1"/>
    <trip id="veh82" type="veh_passenger" depart="91.23" departLane="best" from="889135578#1" to="472714585#5"/>
    <trip id="veh83" type="veh_passenger" depart="92.34" departLane="best" from="301007090#1" to="887777135#2"/>
    <trip id="veh84" type="veh_passenger" depart="93.45" departLane="best" from="887815454#2" to="-885409871#6"/>
    <trip id="veh85" type="veh_passenger" depart="94.56" departLane="best" from="-1083485614#1" to="301007093#4"/>
    <trip id="veh86" type="veh_passenger" depart="95.68" departLane="best" from="-885389926#1" to="885380945#10"/>
    <trip id="veh87" type="veh_passenger" depart="96.79" departLane="best" from="-891208434#6" to="-472714557#5"/>
    <trip id="veh88" type="veh_passenger" depart="97.90" departLane="best" from="-891208434#10" to="889119741#0"/>
    <trip id="veh89" type="veh_passenger" depart="99.01" departLane="best" from="888157363#1" to="-887817816#0"/>
    <trip id="veh90" type="veh_passenger" depart="100.13" departLane="best" from="885409871#5" to="119045605#3"/>
    <trip id="veh91" type="veh_passenger" depart="101.24" departLane="best" from="-1083485612#2" to="-888155729#4"/>
    <trip id="veh92" type="veh_passenger" depart="102.35" departLane="best" from="-887817819" to="889135578#1"/>
    <trip id="veh93" type="veh_passenger" depart="103.46" departLane="best" departSpeed="max" from="119045546#0" to="888160858#4"/>
    <trip id="veh94" type="veh_passenger" depart="104.58" departLane="best" from="447791043#1" to="-301007099#2"/>
    <trip id="veh95" type="veh_passenger" depart="105.69" departLane="best" from="892147659#0" to="888155729#4"/>
    <trip id="veh96" type="veh_passenger" depart="106.80" departLane="best" from="889207213" to="889135579#1"/>
    <trip id="veh97" type="veh_passenger" depart="107.91" departLane="best" from="888155730#0" to="885389915#1"/>
    <trip id="veh98" type="veh_passenger" depart="109.03" departLane="best" from="301007097#1" to="-885768950#1"/>
    <trip id="veh99" type="veh_passenger" depart="110.14" departLane="best" from="-889504806#4" to="-326546173#1"/>
    <trip id="veh100" type="veh_passenger" depart="111.25" departLane="best" from="889162219#0" to="891826629"/>
    <trip id="veh101" type="veh_passenger" depart="112.36" departLane="best" from="-888155716#4" to="887777135#1"/>
    <trip id="veh102" type="veh_passenger" depart="113.48" departLane="best" from="119045603#3" to="1083485614#1"/>
    <trip id="veh103" type="veh_passenger" depart="114.59" departLane="best" from="889162219#3" to="892147659#1"/>
    <trip id="veh104" type="veh_passenger" depart="115.70" departLane="best" from="-472714557#3" to="-1044719303#0"/>
    <trip id="veh105" type="veh_passenger" depart="116.81" departLane="best" from="885380942#2" to="-888157367#2"/>
    <trip id="veh106" type="veh_passenger" depart="117.93" departLane="best" from="889207213" to="472717507#1"/>
    <trip id="veh107" type="veh_passenger" depart="119.04" departLane="best" from="447791038#1" to="-885768919#2"/>
    <trip id="veh108" type="veh_passenger" depart="120.15" departLane="best" from="-301007106#0" to="504167484#2"/>
    <trip id="veh109" type="veh_passenger" depart="121.26" departLane="best" from="444357950#10" to="-888157365"/>
    <trip id="veh110" type="veh_passenger" depart="122.38" departLane="best" from="-885380942#7" to="889441218#0"/>
    <trip id="veh111" type="veh_passenger" depart="123.49" departLane="best" from="444509134#1" to="-885395971#1"/>
    <trip id="veh112" type="veh_passenger" depart="124.60" departLane="best" from="663316507#0" to="885380945#3"/>
    <trip id="veh113" type="veh_passenger" depart="125.71" departLane="best" from="-887776078#2" to="-472717500#3"/>
    <trip id="veh114" type="veh_passenger" depart="126.83" departLane="best" from="-888167580#1" to="-887815451"/>
    <trip id="veh115" type="veh_passenger" depart="127.94" departLane="best" from="504167484#7" to="885354450"/>
    <trip id="veh116" type="veh_passenger" depart="129.05" departLane="best" from="1044734319" to="504167484#2"/>
    <trip id="veh117" type="veh_passenger" depart="130.16" departLane="best" from="444361593#2" to="889138277#2"/>
    <trip id="veh118" type="veh_passenger" depart="131.28" departLane="best" from="885768921#0" to="-885389920#0"/>
    <trip id="veh119" type="veh_passenger" depart="132.39" departLane="best" from="887776081" to="-889441218#0"/>
    <trip id="veh120" type="veh_passenger" depart="133.50" departLane="best" from="885380944#6" to="-888160856#1"/>
    <trip id="veh121" type="veh_passenger" depart="134.61" departLane="best" from="888160868#3" to="1044734319"/>
    <trip id="veh122" type="veh_passenger" depart="135.73" departLane="best" from="444357950#9" to="-301007089#1"/>
    <trip id="veh123" type="veh_passenger" depart="136.84" departLane="best" from="892147657#1" to="892147659#1"/>
    <trip id="veh124" type="veh_passenger" depart="137.95" departLane="best" from="444357950#9" to="-885768950#0"/>
    <trip id="veh125" type="veh_passenger" depart="139.06" departLane="best" from="-888155716#4" to="889138277#0"/>
    <trip id="veh126" type="veh_passenger" depart="140.18" departLane="best" from="888160865" to="888167581"/>
    <trip id="veh127" type="veh_passenger" depart="141.29" departLane="best" from="889138272" to="885380942#7"/>
    <trip id="veh128" type="veh_passenger" depart="142.40" departLane="best" from="888155716#4" to="885389910#0"/>
    <trip id="veh129" type="veh_passenger" depart="143.51" departLane="best" from="720356475#4" to="891826630"/>
    <trip id="veh130" type="veh_passenger" depart="144.63" departLane="best" from="885380937#5" to="1083485612#1"/>
    <trip id="veh131" type="veh_passenger" depart="145.74" departLane="best" from="887835675#1" to="-888160856#0"/>
    <trip id="veh132" type="veh_passenger" depart="146.85" departLane="best" from="885380943#1" to="889140944#1"/>
    <trip id="veh133" type="veh_passenger" depart="147.96" departLane="best" from="-444358760#1" to="472714585#1"/>
    <trip id="veh134" type="veh_passenger" depart="149.08" departLane="best" from="-888155723" to="720356475#3"/>
    <trip id="veh135" type="veh_passenger" depart="150.19" departLane="best" from="-885354460" to="-888155716#2"/>
    <trip id="veh136" type="veh_passenger" depart="151.30" departLane="best" from="-301007098#0" to="889119747#3"/>
    <trip id="veh137" type="veh_passenger" depart="152.41" departLane="best" from="888155729#0" to="-445425468#1"/>
    <trip id="veh138" type="veh_passenger" depart="153.53" departLane="best" from="-1083485614#1" to="-888155729#0"/>
    <trip id="veh139" type="veh_passenger" depart="154.64" departLane="best" from="-1044719301#0" to="-887775247"/>
    <trip id="veh141" type="veh_passenger" depart="156.86" departLane="best" from="885409871#7" to="472714557#5"/>
    <trip id="veh142" type="veh_passenger" depart="157.98" departLane="best" from="1112299275#1" to="-1083485614#0"/>
    <trip id="veh143" type="veh_passenger" depart="159.09" departLane="best" from="-444358759#4" to="889102605#1"/>
    <trip id="veh144" type="veh_passenger" depart="160.20" departLane="best" from="889119737#4" to="447791045#1"/>
    <trip id="veh145" type="veh_passenger" depart="161.31" departLane="best" from="-888155716#5" to="504167484#1"/>
    <trip id="veh146" type="veh_passenger" depart="162.43" departLane="best" from="-885354457" to="-720356465#0"/>
    <trip id="veh147" type="veh_passenger" depart="163.54" departLane="best" from="-888160860#1" to="889119741#0"/>
    <trip id="veh148" type="veh_passenger" depart="164.65" departLane="best" from="-887777135#2" to="888160858#3"/>
    <trip id="veh149" type="veh_passenger" depart="165.76" departLane="best" from="-889114937#3" to="-885768929"/>
    <trip id="veh150" type="veh_passenger" depart="166.88" departLane="best" from="-887817816#2" to="472714560#4"/>
    <trip id="veh151" type="veh_passenger" depart="167.99" departLane="best" from="887771600" to="889102605#1"/>
    <trip id="veh152" type="veh_passenger" depart="169.10" departLane="best" from="-891208434#4" to="885354452#0"/>
    <trip id="veh153" type="veh_passenger" depart="170.21" departLane="best" from="-885380942#2" to="889135583"/>
    <trip id="veh154" type="veh_passenger" depart="171.33" departLane="best" from="-888157366" to="891208434#9"/>
    <trip id="veh155" type="veh_passenger" depart="172.44" departLane="best" from="887817817" to="-888174129#1"/>
    <trip id="veh156" type="veh_passenger" depart="173.55" departLane="best" from="119045603#4" to="885411266#1"/>
    <trip id="veh157" type="veh_passenger" depart="174.66" departLane="best" from="887815451" to="888160858#9"/>
    <trip id="veh158" type="veh_passenger" depart="175.78" departLane="best" from="887817817" to="888155717#1"/>
    <trip id="veh159" type="veh_passenger" depart="176.89" departLane="best" from="-887776077#1" to="-472714570#2"/>
    <trip id="veh160" type="veh_passenger" depart="178.00" departLane="best" from="-887771598#0" to="888155715#0"/>
    <trip id="veh161" type="veh_passenger" depart="179.11" departLane="best" from="119045605#3" to="-888160858#7"/>
    <trip id="veh162" type="veh_passenger" depart="180.23" departLane="best" from="887777135#1" to="-887775248#1"/>
    <trip id="veh163" type="veh_passenger" depart="181.34" departLane="best" from="119045603#3" to="-885743170#1"/>
    <trip id="veh164" type="veh_passenger" depart="182.45" departLane="best" from="-889114937#3" to="888160860#1"/>
    <trip id="veh165" type="veh_passenger" depart="183.56" departLane="best" from="889203286" to="-888155729#5"/>
    <trip id="veh166" type="veh_passenger" depart="184.68" departLane="best" departSpeed="max" from="885380933" to="889504806#3"/>
    <trip id="veh167" type="veh_passenger" depart="185.79" departLane="best" from="-891208434#3" to="447791042"/>
    <trip id="veh168" type="veh_passenger" depart="186.90" departLane="best" from="889135580#1" to="472714585#1"/>
    <trip id="veh169" type="veh_passenger" depart="188.01" departLane="best" from="889207215#0" to="885389925"/>
    <trip id="veh170" type="veh_passenger" depart="189.13" departLane="best" from="889162219#8" to="888155716#5"/>
    <trip id="veh171" type="veh_passenger" depart="190.24" departLane="best" from="472714573" to="119045546#2"/>
    <trip id="veh172" type="veh_passenger" depart="191.35" departLane="best" from="-885389926#0" to="-888160867"/>
    <trip id="veh173" type="veh_passenger" depart="192.46" departLane="best" from="720356474#5-AddedOnRampEdge" to="885380945#9"/>
    <trip id="veh174" type="veh_passenger" depart="193.58" departLane="best" from="889162219#5" to="472717503#1"/>
    <trip id="veh175" type="veh_passenger" depart="194.69" departLane="best" from="-887835679#0" to="-885389915#0"/>
    <trip id="veh176" type="veh_passenger" depart="195.80" departLane="best" from="-1044719298" to="889135579#1"/>
    <trip id="veh177" type="veh_passenger" depart="196.91" departLane="best" from="885409871#9" to="885380945#0"/>
    <trip id="veh178" type="veh_passenger" depart="198.03" departLane="best" from="-889135580#0" to="-444357950#7"/>
    <trip id="veh179" type="veh_passenger" depart="199.14" departLane="best" from="885380943#2" to="-889116639"/>
    <trip id="veh180" type="veh_passenger" depart="200.25" departLane="best" from="-888160867" to="888157361#0"/>
    <trip id="veh181" type="veh_passenger" depart="201.36" departLane="best" from="885389918#0" to="-888160857"/>
    <trip id="veh182" type="veh_passenger" depart="202.48" departLane="best" from="-888160861#0" to="-891208434#6"/>
    <trip id="veh183" type="veh_passenger" depart="203.59" departLane="best" from="-891208434#10" to="-888157366"/>
    <trip id="veh184" type="veh_passenger" depart="204.70" departLane="best" from="-720356465#0" to="1083485612#1"/>
    <trip id="veh185" type="veh_passenger" depart="205.81" departLane="best" from="889119737#1" to="-885354448#4"/>
    <trip id="veh186" type="veh_passenger" depart="206.93" departLane="best" from="888160857" to="447791045#1"/>
    <trip id="veh187" type="veh_passenger" depart="208.04" departLane="best" from="-1044719283" to="-888157357"/>
    <trip id="veh188" type="veh_passenger" depart="209.15" departLane="best" from="1119574676#0" to="-486696235"/>
    <trip id="veh189" type="veh_passenger" depart="210.26" departLane="best" from="885380937#5" to="301007093#0"/>
    <trip id="veh190" type="veh_passenger" depart="211.38" departLane="best" departSpeed="max" from="119045546#0" to="-885768950#1"/>
    <trip id="veh191" type="veh_passenger" depart="212.49" departLane="best" from="301007090#3" to="-889119743#0"/>
    <trip id="veh192" type="veh_passenger" depart="213.60" departLane="best" from="-887777135#2" to="885389917#0"/>
    <trip id="veh193" type="veh_passenger" depart="214.71" departLane="best" from="-885354458" to="889119738#0"/>
    <trip id="veh194" type="veh_passenger" depart="215.83" departLane="best" from="-887835676#0" to="885768921#3"/>
    <trip id="veh195" type="veh_passenger" depart="216.94" departLane="best" from="885380945#2" to="-887775245#0"/>
    <trip id="veh196" type="veh_passenger" depart="218.05" departLane="best" from="-885758263" to="-119045603#4"/>
    <trip id="veh197" type="veh_passenger" depart="219.16" departLane="best" from="887815449#0" to="-301007097#2"/>
    <trip id="veh198" type="veh_passenger" depart="220.28" departLane="best" from="888155731#0" to="-444357950#9"/>
    <trip id="veh200" type="veh_passenger" depart="222.50" departLane="best" from="885758247#1" to="885384073#2"/>
    <trip id="veh201" type="veh_passenger" depart="223.61" departLane="best" from="301007102#0" to="-887815448"/>
    <trip id="veh202" type="veh_passenger" depart="224.73" departLane="best" from="885380939#0" to="-1044734321"/>
    <trip id="veh203" type="veh_passenger" depart="225.84" departLane="best" from="885758247#2" to="887775245#1"/>
    <trip id="veh204" type="veh_passenger" depart="226.95" departLane="best" from="472714570#0" to="1105693026"/>
    <trip id="veh205" type="veh_passenger" depart="228.06" departLane="best" from="885389924#0" to="-889207214"/>
    <trip id="veh206" type="veh_passenger" depart="229.18" departLane="best" from="-444358760#0" to="-301007099#0"/>
    <trip id="veh207" type="veh_passenger" depart="230.29" departLane="best" from="-887817816#2" to="-888157361#1"/>
    <trip id="veh208" type="veh_passenger" depart="231.40" departLane="best" from="119045605#0" to="887835675#1"/>
    <trip id="veh209" type="veh_passenger" depart="232.51" departLane="best" from="889135579#1" to="891826631"/>
    <trip id="veh210" type="veh_passenger" depart="233.63" departLane="best" from="663316507#1" to="-889162219#8"/>
    <trip id="veh211" type="veh_passenger" depart="234.74" departLane="best" from="888167582" to="840315698"/>
    <trip id="veh212" type="veh_passenger" depart="235.85" departLane="best" from="-885389917#1" to="-444358759#4"/>
    <trip id="veh213" type="veh_passenger" depart="236.96" departLane="best" from="-888155715#6" to="447791045#1"/>
    <trip id="veh214" type="veh_passenger" depart="238.08" departLane="best" from="-889114937#0" to="885758262"/>
    <trip id="veh215" type="veh_passenger" depart="239.19" departLane="best" from="301007092" to="-887838850#1"/>
    <trip id="veh216" type="veh_passenger" depart="240.30" departLane="best" from="-887815454#0" to="885380937#0"/>
    <trip id="veh217" type="veh_passenger" depart="241.41" departLane="best" from="885768927" to="444802957#9"/>
    <trip id="veh218" type="veh_passenger" depart="242.53" departLane="best" from="885354452#2" to="-888155727#0"/>
    <trip id="veh219" type="veh_passenger" depart="243.64" departLane="best" from="-444358760#0" to="-888155735"/>
    <trip id="veh220" type="veh_passenger" depart="244.75" departLane="best" from="445425468#3" to="-885354448#8"/>
    <trip id="veh221" type="veh_passenger" depart="245.86" departLane="best" from="-887776077#0" to="885384073#0"/>
    <trip id="veh222" type="veh_passenger" depart="246.98" departLane="best" from="885384073#6" to="-444357950#2"/>
    <trip id="veh223" type="veh_passenger" depart="248.09" departLane="best" from="-891208434#5" to="447791045#1"/>
    <trip id="veh224" type="veh_passenger" depart="249.20" departLane="best" from="1044719299" to="-885768921#4"/>
    <trip id="veh225" type="veh_passenger" depart="250.31" departLane="best" from="-1083485612#0" to="889119747#2"/>
    <trip id="veh226" type="veh_passenger" depart="251.43" departLane="best" from="472717507#1" to="504167484#7"/>
    <trip id="veh227" type="veh_passenger" depart="252.54" departLane="best" from="888157358" to="-887771597#0"/>
    <trip id="veh228" type="veh_passenger" depart="253.65" departLane="best" from="889162219#1" to="-1044734321"/>
    <trip id="veh229" type="veh_passenger" depart="254.76" departLane="best" from="889119757#0" to="885768923"/>
    <trip id="veh230" type="veh_passenger" depart="255.88" departLane="best" from="-888155734#0" to="-889203283"/>
    <trip id="veh231" type="veh_passenger" depart="256.99" departLane="best" from="447791038#7" to="720356474#6"/>
    <trip id="veh232" type="veh_passenger" depart="258.10" departLane="best" departSpeed="max" from="1150690036" to="292927468#2"/>
    <trip id="veh233" type="veh_passenger" depart="259.21" departLane="best" from="-891208434#11" to="-885389914#1"/>
    <trip id="veh234" type="veh_passenger" depart="260.33" departLane="best" from="301007088#0" to="-720356465#0"/>
    <trip id="veh235" type="veh_passenger" depart="261.44" departLane="best" from="885354448#6" to="292927468#0"/>
    <trip id="veh236" type="veh_passenger" depart="262.55" departLane="best" from="889207214" to="-1070247748"/>
    <trip id="veh237" type="veh_passenger" depart="263.66" departLane="best" from="-292927468#0" to="885380937#5"/>
    <trip id="veh238" type="veh_passenger" depart="264.78" departLane="best" from="-885354448#2" to="301007090#3"/>
    <trip id="veh239" type="veh_passenger" depart="265.89" departLane="best" from="301007099#0" to="-889162219#1"/>
    <trip id="veh240" type="veh_passenger" depart="267.00" departLane="best" from="-885768931" to="889114937#2"/>
    <trip id="veh241" type="veh_passenger" depart="268.11" departLane="best" from="885768921#1" to="-889162219#1"/>
    <trip id="veh242" type="veh_passenger" depart="269.23" departLane="best" from="885758247#3" to="-888155727#0"/>
    <trip id="veh243" type="veh_passenger" depart="270.34" departLane="best" from="-887835677#0" to="-444802956#2"/>